      18
 
Fe     6.4244250125885   6.4244250125885   4.9967750377655
Fe     7.8520749874115   7.8520749874115   4.9967750377655
Fe     6.4244250125885   4.9967750377655   6.4244250125885
Fe     4.9967750377655   6.4244250125885   6.4244250125885
Fe     9.2797249622345   7.8520749874115   6.4244250125885
Fe     7.8520749874115   9.2797249622345   6.4244250125885
Fe     7.8520749874115   4.9967750377655   7.8520749874115
Fe     9.2797249622345   6.4244250125885   7.8520749874115
Fe     4.9967750377655   7.8520749874115   7.8520749874115
Fe    10.7073749622345   7.8520750125885   7.8520750125885
Fe     6.4244250125885   9.2797249622345   7.8520749874115
Fe     7.8520750125885  10.7073749622345   7.8520750125885
Fe     7.8520749874115   6.4244250125885   9.2797249622345
Fe     6.4244250125885   7.8520749874115   9.2797249622345
Fe    10.7073749622345   9.2797249874115   9.2797249874115
Fe     9.2797249874115  10.7073749622345   9.2797249874115
Fe     7.8520750125885   7.8520750125885  10.7073749622345
Fe     9.2797249874115   9.2797249874115  10.7073749622345
