      86
Fe     6.4244250125885   6.4244250125885   4.9967750377655
Fe     7.8520749874115   7.8520749874115   4.9967750377655
Fe     6.4244250125885   4.9967750377655   6.4244250125885
Fe     4.9967750377655   6.4244250125885   6.4244250125885
Fe     9.2797249622345   7.8520749874115   6.4244250125885
Fe     7.8520749874115   9.2797249622345   6.4244250125885
Fe     7.8520749874115   4.9967750377655   7.8520749874115
Fe     9.2797249622345   6.4244250125885   7.8520749874115
Fe     4.9967750377655   7.8520749874115   7.8520749874115
Fe    10.7073749622345   7.8520750125885   7.8520750125885
Fe     6.4244250125885   9.2797249622345   7.8520749874115
Fe     7.8520750125885  10.7073749622345   7.8520750125885
Fe     7.8520749874115   6.4244250125885   9.2797249622345
Fe     6.4244250125885   7.8520749874115   9.2797249622345
Fe    10.7073749622345   9.2797249874115   9.2797249874115
Fe     9.2797249874115  10.7073749622345   9.2797249874115
Fe     7.8520750125885   7.8520750125885  10.7073749622345
Fe     9.2797249874115   9.2797249874115  10.7073749622345
Cu     4.2829500000000   4.2829500000000   4.2829500000000
Cu     4.2829500000000   4.2829500000000   7.1382500000000
Cu     4.2829500000000   4.2829500000000   9.9935500000000
Cu     4.2829500000000   7.1382500000000   4.2829500000000
Cu     4.2829500000000   7.1382500000000   9.9935500000000
Cu     4.2829500000000   9.9935500000000   4.2829500000000
Cu     4.2829500000000   9.9935500000000   7.1382500000000
Cu     4.2829500000000   9.9935500000000   9.9935500000000
Cu     7.1382500000000   4.2829500000000   4.2829500000000
Cu     7.1382500000000   4.2829500000000   9.9935500000000
Cu     7.1382500000000   7.1382500000000   7.1382500000000
Cu     5.7106000000000   5.7106000000000   8.5659000000000
Cu     5.7106000000000   5.7106000000000  11.4212000000000
Cu     7.1382500000000   9.9935500000000   4.2829500000000
Cu     5.7106000000000   8.5659000000000   5.7106000000000
Cu     7.1382500000000   9.9935500000000   9.9935500000000
Cu     5.7106000000000   8.5659000000000  11.4212000000000
Cu     5.7106000000000  11.4212000000000   5.7106000000000
Cu     5.7106000000000  11.4212000000000   8.5659000000000
Cu     5.7106000000000  11.4212000000000  11.4212000000000
Cu     9.9935500000000   4.2829500000000   4.2829500000000
Cu     9.9935500000000   4.2829500000000   7.1382500000000
Cu     9.9935500000000   4.2829500000000   9.9935500000000
Cu     9.9935500000000   7.1382500000000   4.2829500000000
Cu     8.5659000000000   5.7106000000000   5.7106000000000
Cu     9.9935500000000   7.1382500000000   9.9935500000000
Cu     8.5659000000000   5.7106000000000  11.4212000000000
Cu     9.9935500000000   9.9935500000000   4.2829500000000
Cu     9.9935500000000   9.9935500000000   7.1382500000000
Cu     8.5659000000000   8.5659000000000   8.5659000000000
Cu     8.5659000000000  11.4212000000000   5.7106000000000
Cu     8.5659000000000  11.4212000000000  11.4212000000000
Cu    11.4212000000000   5.7106000000000   5.7106000000000
Cu    11.4212000000000   5.7106000000000   8.5659000000000
Cu    11.4212000000000   5.7106000000000  11.4212000000000
Cu    11.4212000000000   8.5659000000000   5.7106000000000
Cu    11.4212000000000   8.5659000000000  11.4212000000000
Cu    11.4212000000000  11.4212000000000   5.7106000000000
Cu    11.4212000000000  11.4212000000000   8.5659000000000
Cu    11.4212000000000  11.4212000000000  11.4212000000000
