      24
 
Fe     3.5691250125885   3.5691250125885   2.1414750377655
Fe     4.9967749874115   4.9967749874115   2.1414750377655
Fe     3.5691250125885   2.1414750377655   3.5691250125885
Fe     2.1414750377655   3.5691250125885   3.5691250125885
Fe     6.4244249622345   4.9967749874115   3.5691250125885
Fe     4.9967749874115   6.4244249622345   3.5691250125885
Fe     3.5691249874115   0.7138250377655   4.9967750125885
Fe     4.9967749874115   2.1414750377655   4.9967749874115
Fe     0.7138250377655   3.5691249874115   4.9967750125885
Fe     6.4244249622345   3.5691250125885   4.9967749874115
Fe     2.1414750377655   4.9967749874115   4.9967749874115
Fe     7.8520749622345   4.9967750125885   4.9967750125885
Fe     3.5691250125885   6.4244249622345   4.9967749874115
Fe     4.9967750125885   7.8520749622345   4.9967750125885
Fe     2.1414750125885   0.7138250377655   6.4244249874115
Fe     0.7138250377655   2.1414750125885   6.4244249874115
Fe     4.9967749874115   3.5691250125885   6.4244249622345
Fe     3.5691250125885   4.9967749874115   6.4244249622345
Fe     7.8520749622345   6.4244249874115   6.4244249874115
Fe     6.4244249874115   7.8520749622345   6.4244249874115
Fe     2.1414750125885   2.1414750125885   7.8520749622345
Fe     3.5691249874115   3.5691249874115   7.8520749622345
Fe     4.9967750125885   4.9967750125885   7.8520749622345
Fe     6.4244249874115   6.4244249874115   7.8520749622345
