      37
 
Fe    17.8456250125885  17.8456250125885  13.5626750377655
Fe    19.2732749874115  19.2732749874115  13.5626750377655
Fe    17.8456250125885  16.4179750377655  14.9903250125885
Fe    16.4179750377655  17.8456250125885  14.9903250125885
Fe    20.7009249622345  19.2732749874115  14.9903250125885
Fe    19.2732749874115  20.7009249622345  14.9903250125885
Fe    17.8456249874115  14.9903250377655  16.4179750125885
Fe    19.2732749874115  16.4179750377655  16.4179749874115
Fe    14.9903250377655  17.8456249874115  16.4179750125885
Fe    20.7009249622345  17.8456250125885  16.4179749874115
Fe    16.4179750377655  19.2732749874115  16.4179749874115
Fe    22.1285749622345  19.2732750125885  16.4179750125885
Fe    17.8456250125885  20.7009249622345  16.4179749874115
Fe    19.2732750125885  22.1285749622345  16.4179750125885
Fe    16.4179750125885  14.9903250377655  17.8456249874115
Fe    14.9903250377655  16.4179750125885  17.8456249874115
Fe    13.5626750377655  17.8456250125885  17.8456250125885
Fe    19.2732749874115  17.8456250125885  17.8456249622345
Fe    17.8456250125885  19.2732749874115  17.8456249622345
Fe    16.4179749874115  20.7009249622345  17.8456250125885
Fe    22.1285749622345  20.7009249874115  17.8456249874115
Fe    20.7009249874115  22.1285749622345  17.8456249874115
Fe    19.2732749874115  23.5562249622345  17.8456250125885
Fe    16.4179750125885  16.4179750125885  19.2732749622345
Fe    17.8456249874115  17.8456249874115  19.2732749622345
Fe    13.5626750377655  19.2732749874115  19.2732749874115
Fe    19.2732750125885  19.2732750125885  19.2732749622345
Fe    14.9903250125885  20.7009249622345  19.2732749874115
Fe    20.7009249874115  20.7009249874115  19.2732749622345
Fe    16.4179750377655  22.1285749874115  19.2732749874115
Fe    17.8456250125885  23.5562249622345  19.2732749874115
Fe    16.4179749874115  17.8456250125885  20.7009249622345
Fe    14.9903250125885  19.2732749874115  20.7009249622345
Fe    19.2732749874115  20.7009250125885  20.7009249622345
Fe    17.8456250125885  22.1285749874115  20.7009249622345
Fe    16.4179750125885  19.2732750125885  22.1285749622345
Fe    17.8456249874115  20.7009249874115  22.1285749622345
